@<TRIPOS>MOLECULE
ACY
    7     6     1     0     0
SMALL
bcc


@<TRIPOS>ATOM
      1 C            0.0000     0.0000     0.0000 c          1 ACY       0.900600
      2 O            1.2670     0.0000     0.0000 o          1 ACY      -0.861300
      3 OXT         -0.6980     0.0000     1.0570 o          1 ACY      -0.861300
      4 CH3         -0.7210     0.0020    -1.3470 c3         1 ACY      -0.205100
      5 H1          -0.6680     0.9920    -1.7840 hc         1 ACY       0.009033
      6 H2          -0.2480    -0.7110    -2.0110 hc         1 ACY       0.009033
      7 H3          -1.7590    -0.2730    -1.2010 hc         1 ACY       0.009033
@<TRIPOS>BOND
     1     1     2 1   
     2     1     3 1   
     3     1     4 1   
     4     4     5 1   
     5     4     6 1   
     6     4     7 1   
@<TRIPOS>SUBSTRUCTURE
     1 ACY         1 TEMP              0 ****  ****    0 ROOT
