@<TRIPOS>MOLECULE
SO4
    5     2     1     0     0
SMALL
bcc


@<TRIPOS>ATOM
      1 S           -0.0330    -0.0150    -0.0120 ss         1 SO4       2.526000
      2 O1           1.3400    -0.1070    -0.6340 o          1 SO4      -1.055000
      3 O2           0.2530     0.8360     1.2030 o          1 SO4      -1.055000
      4 O3          -1.0110     0.6650    -0.9400 os         1 SO4      -1.208000
      5 O4          -0.5480    -1.3780     0.3830 os         1 SO4      -1.208000
@<TRIPOS>BOND
     1     1     2 1
     2     1     3 1
@<TRIPOS>SUBSTRUCTURE
     1 SO4         1 TEMP              0 ****  ****    0 ROOT
